Circuit: * D:\My stuff\personal\School work\Uni 2021 Fall\Senior Design Project I\LT spice\Cody D-OS-SK\Differentiator__Monostable_Vibrator__Sallen_Key.asc

WARNING: Less than two connections to node -VCC.  This node is used by V2.
Direct Newton iteration for .op point succeeded.

Date: Fri Dec 17 17:22:09 2021
Total elapsed time: 0.908 seconds.

tnom = 27
temp = 27
method = modified trap
totiter = 118801
traniter = 118753
tranpoints = 40155
accept = 29866
rejected = 10289
matrix size = 34
fillins = 12
solver = Normal
Thread vector: 5.0/3.7[2] 1.4/1.1[2] 0.6/0.7[1] 0.1/0.3[1]  2592/500
Matrix Compiler1: 1.91 KB object code size  0.4/0.2/[0.1]
Matrix Compiler2: 2.65 KB object code size  0.2/0.4/[0.2]

